Version 4
SHEET 1 880 856
WIRE 336 32 80 32
WIRE 80 112 80 32
WIRE 336 112 336 32
WIRE 80 224 80 192
WIRE 336 240 336 192
WIRE 464 240 336 240
WIRE 576 240 464 240
WIRE 336 256 336 240
WIRE -144 304 -272 304
WIRE -96 304 -144 304
WIRE 16 304 -16 304
WIRE 272 304 16 304
WIRE -272 368 -272 304
WIRE -144 400 -144 304
WIRE -80 400 -144 400
WIRE 16 400 16 304
WIRE 16 400 -16 400
WIRE 336 432 336 352
WIRE 336 432 128 432
WIRE 336 464 336 432
WIRE 464 528 464 240
WIRE 464 528 384 528
WIRE -448 576 -656 576
WIRE 128 576 128 432
WIRE 128 576 -384 576
WIRE -656 624 -656 576
WIRE 336 704 336 560
WIRE -656 752 -656 704
WIRE 336 816 336 784
FLAG 80 224 0
FLAG 576 240 VOUT
FLAG 336 816 0
FLAG -656 752 0
FLAG -272 368 0
SYMBOL voltage 80 96 R0
WINDOW 123 0 0 Left 0
WINDOW 39 0 0 Left 0
SYMATTR InstName V1
SYMATTR Value 10
SYMBOL npn 272 256 R0
SYMATTR InstName Q1
SYMATTR Value 2N2222
SYMBOL res 320 96 R0
SYMATTR InstName R1
SYMATTR Value 3k
SYMBOL pjf 384 464 M0
SYMATTR InstName J1
SYMATTR Value 2N5460
SYMBOL voltage 336 688 R0
WINDOW 123 0 0 Left 0
WINDOW 39 0 0 Left 0
SYMATTR InstName V2
SYMATTR Value -10
SYMBOL voltage -656 608 R0
WINDOW 123 0 0 Left 0
WINDOW 39 0 0 Left 0
SYMATTR InstName V3
SYMATTR Value PULSE(2 -2 0 10n 10n 50u 100u)
SYMBOL res 0 288 R90
WINDOW 0 0 56 VBottom 2
WINDOW 3 32 56 VTop 2
SYMATTR InstName R2
SYMATTR Value 10k
SYMBOL cap -16 384 R90
WINDOW 0 0 32 VBottom 2
WINDOW 3 32 32 VTop 2
SYMATTR InstName C1
SYMATTR Value 250p
SYMBOL cap -384 560 R90
WINDOW 0 0 32 VBottom 2
WINDOW 3 32 32 VTop 2
SYMATTR InstName C2
SYMATTR Value 250p
TEXT -292 840 Left 2 !.tran 0 1m 0 10n
