Version 4
SHEET 1 1176 812
WIRE 0 -32 -320 -32
WIRE 96 -32 0 -32
WIRE 448 -32 96 -32
WIRE 992 -32 448 -32
WIRE 448 0 448 -32
WIRE 96 16 96 -32
WIRE 992 16 992 -32
WIRE -320 64 -320 -32
WIRE 0 80 0 -32
WIRE 48 80 0 80
WIRE 992 128 992 96
WIRE 1088 128 992 128
WIRE 992 160 992 128
WIRE 992 160 816 160
WIRE 448 192 448 80
WIRE 448 192 304 192
WIRE 448 208 448 192
WIRE 592 208 448 208
WIRE 752 208 592 208
WIRE -320 224 -320 144
WIRE 992 224 992 160
WIRE 96 240 96 112
WIRE 240 240 96 240
WIRE 448 240 448 208
WIRE 592 256 592 208
WIRE 816 272 816 256
WIRE 928 272 816 272
WIRE 384 288 304 288
WIRE 448 368 448 336
WIRE 448 368 320 368
WIRE 992 384 992 320
WIRE 96 400 96 240
WIRE 448 416 448 368
WIRE -224 464 -464 464
WIRE -16 464 -160 464
WIRE 48 464 -16 464
WIRE 96 496 96 480
WIRE -16 512 -16 464
WIRE 992 528 992 464
WIRE -464 544 -464 464
WIRE 96 560 96 496
WIRE 320 592 320 368
WIRE -464 688 -464 624
WIRE 96 688 96 640
WIRE -16 784 -16 576
WIRE 320 784 320 656
WIRE 320 784 -16 784
WIRE 592 784 592 320
WIRE 592 784 320 784
FLAG -320 224 0
FLAG 96 688 0
FLAG -464 688 0
FLAG 448 416 0
FLAG 992 528 0
FLAG 1088 128 VOUT
DATAFLAG 176 240 ""
DATAFLAG 512 208 ""
DATAFLAG -96 464 ""
DATAFLAG 352 288 ""
DATAFLAG 992 128 ""
SYMBOL pjf 48 16 R0
SYMATTR InstName J1
SYMATTR Value LSJ74A
SYMBOL pjf 48 400 R0
SYMATTR InstName J2
SYMATTR Value 2N5460
SYMBOL voltage -320 48 R0
WINDOW 123 0 0 Left 0
WINDOW 39 0 0 Left 0
SYMATTR InstName V1
SYMATTR Value 6
SYMBOL voltage 96 544 R0
WINDOW 123 0 0 Left 0
WINDOW 39 0 0 Left 0
SYMATTR InstName V2
SYMATTR Value -3
SYMBOL cap -160 448 R90
WINDOW 0 0 32 VBottom 2
WINDOW 3 32 32 VTop 2
SYMATTR InstName C1
SYMATTR Value 10p
SYMBOL voltage -464 528 R0
WINDOW 123 24 124 Left 2
WINDOW 39 0 0 Left 0
SYMATTR InstName V3
SYMATTR Value SINE(0 10m 10k)
SYMATTR Value2 AC 1
SYMBOL npn 240 192 R0
SYMATTR InstName Q1
SYMATTR Value 2SC4617EB
SYMBOL res 432 -16 R0
SYMATTR InstName R1
SYMATTR Value 25k
SYMBOL npn 384 240 R0
SYMATTR InstName Q2
SYMATTR Value 2SC4617
SYMBOL diode 576 256 R0
SYMATTR InstName D1
SYMATTR Value 1N914
SYMBOL diode 0 576 R180
WINDOW 0 24 64 Left 2
WINDOW 3 24 0 Left 2
SYMATTR InstName D2
SYMATTR Value 1N914
SYMBOL cap 304 592 R0
SYMATTR InstName C2
SYMATTR Value 1µ
SYMBOL npn 752 160 R0
SYMATTR InstName Q3
SYMATTR Value 2SC4726
SYMBOL npn 928 224 R0
SYMATTR InstName Q4
SYMATTR Value 2SC4726
SYMBOL res 976 368 R0
SYMATTR InstName R2
SYMATTR Value 5k
SYMBOL res 976 0 R0
SYMATTR InstName R3
SYMATTR Value 15k
TEXT -498 794 Left 2 !.tran 0 500u 0 10n
