Version 4
SHEET 1 1252 728
WIRE 144 -128 -144 -128
WIRE 416 -128 144 -128
WIRE 976 -128 416 -128
WIRE 976 -96 976 -128
WIRE -144 -80 -144 -128
WIRE 144 -80 144 -128
WIRE 976 16 976 -16
WIRE -144 32 -144 0
WIRE 144 64 144 0
WIRE 800 64 144 64
WIRE 912 64 800 64
WIRE 976 160 976 112
WIRE 976 160 480 160
WIRE 976 192 976 160
WIRE 1200 192 976 192
WIRE 1232 192 1200 192
WIRE 144 208 144 64
WIRE 416 208 416 -128
WIRE 800 208 800 64
WIRE 80 256 -224 256
WIRE 480 256 480 160
WIRE -224 288 -224 256
WIRE 272 304 144 304
WIRE 416 304 272 304
WIRE 976 320 976 192
WIRE 272 368 272 304
WIRE -224 432 -224 368
WIRE 528 432 528 368
WIRE 272 480 272 448
WIRE 272 480 0 480
WIRE 800 480 800 272
WIRE 800 480 272 480
WIRE 976 480 976 400
WIRE 976 480 800 480
WIRE 0 576 0 480
WIRE 0 688 0 656
FLAG -144 32 0
FLAG 0 688 0
FLAG 1200 192 VOUT
FLAG -224 432 0
FLAG 528 432 0
SYMBOL voltage -144 -96 R0
WINDOW 123 0 0 Left 0
WINDOW 39 0 0 Left 0
SYMATTR InstName V1
SYMATTR Value 5
SYMBOL res 128 -96 R0
SYMATTR InstName R1
SYMATTR Value 200
SYMBOL npn 80 208 R0
SYMATTR InstName Q1
SYMATTR Value 2N3391A
SYMBOL npn 480 208 M0
SYMATTR InstName Q2
SYMATTR Value 2N3391A
SYMBOL res 256 352 R0
SYMATTR InstName R2
SYMATTR Value 200
SYMBOL voltage 0 560 R0
WINDOW 123 0 0 Left 0
WINDOW 39 0 0 Left 0
SYMATTR InstName V2
SYMATTR Value -5
SYMBOL pnp 912 112 M180
SYMATTR InstName Q3
SYMATTR Value 2N4126
SYMBOL res 960 -112 R0
SYMATTR InstName R3
SYMATTR Value 1k
SYMBOL res 960 304 R0
SYMATTR InstName R4
SYMATTR Value 3.65k
SYMBOL voltage -224 272 R0
WINDOW 123 24 124 Left 2
WINDOW 39 0 0 Left 0
SYMATTR Value2 AC 1
SYMATTR InstName V3
SYMATTR Value SINE(0 1 100k)
SYMBOL voltage 528 272 R0
WINDOW 123 24 124 Left 2
WINDOW 39 0 0 Left 0
SYMATTR Value2 AC -1
SYMATTR InstName V4
SYMATTR Value SINE(0)
SYMBOL cap 784 208 R0
SYMATTR InstName C1
SYMATTR Value 30n
TEXT -258 712 Left 2 !.tran 0 50u 0 10n
