Version 4
SHEET 1 1464 1284
WIRE 48 -144 -608 -144
WIRE 304 -144 48 -144
WIRE 624 -144 304 -144
WIRE 1232 -144 1056 -144
WIRE 48 -96 48 -144
WIRE 304 -96 304 -144
WIRE 624 -80 624 -144
WIRE -608 0 -608 -64
WIRE 1232 0 1232 -64
WIRE 1056 16 1056 -144
WIRE 1056 16 912 16
WIRE 48 48 48 -16
WIRE 240 48 48 48
WIRE 304 80 304 -16
WIRE 416 80 304 80
WIRE 48 112 48 48
WIRE 304 112 304 80
WIRE 624 112 624 0
WIRE 1056 144 1056 16
WIRE 1200 144 1056 144
WIRE -80 160 -224 160
WIRE -16 160 -80 160
WIRE 240 160 240 48
WIRE 416 160 416 80
WIRE 512 160 416 160
WIRE 560 160 512 160
WIRE 912 160 912 16
WIRE 736 208 624 208
WIRE 784 208 736 208
WIRE 848 208 784 208
WIRE 1056 208 1056 144
WIRE 1200 224 1200 144
WIRE 992 256 912 256
WIRE -80 272 -80 160
WIRE -16 272 -80 272
WIRE 48 272 48 208
WIRE 304 272 304 208
WIRE -224 288 -224 240
WIRE 512 288 512 160
WIRE 560 288 512 288
WIRE 736 288 736 208
WIRE 736 288 624 288
WIRE 1056 368 1056 304
WIRE 1200 368 1200 288
WIRE 1200 368 1056 368
WIRE 1056 576 1056 368
WIRE 1248 576 1056 576
WIRE 1408 576 1248 576
WIRE 384 640 192 640
WIRE 656 640 384 640
WIRE 1408 640 1408 576
WIRE 192 656 192 640
WIRE 384 688 384 640
WIRE 1248 688 1248 656
WIRE 1056 736 1056 576
WIRE 1056 736 912 736
WIRE 656 752 656 720
WIRE 192 768 192 736
WIRE 1248 784 1248 768
WIRE 1408 784 1408 704
WIRE 1408 784 1248 784
WIRE 384 800 384 768
WIRE 528 800 384 800
WIRE 592 800 528 800
WIRE 1248 800 1248 784
WIRE 912 816 912 736
WIRE 1056 816 1056 736
WIRE 1200 816 1056 816
WIRE 384 832 384 800
WIRE 656 864 656 848
WIRE 800 864 656 864
WIRE 848 864 800 864
WIRE 1056 864 1056 816
WIRE 48 880 48 272
WIRE 320 880 48 880
WIRE 1200 880 1200 816
WIRE 992 912 912 912
WIRE 528 944 528 800
WIRE 592 944 528 944
WIRE 656 944 656 864
WIRE 384 960 384 928
WIRE 384 960 240 960
WIRE 384 1008 384 960
WIRE 1056 1008 1056 960
WIRE 1200 1008 1200 944
WIRE 1200 1008 1056 1008
WIRE 240 1072 240 1024
WIRE 384 1136 384 1088
WIRE 1056 1200 1056 1008
WIRE 240 1248 240 1136
WIRE 384 1264 384 1216
FLAG -224 288 0
FLAG 784 208 VOUT1
FLAG 304 272 0
FLAG -608 0 0
FLAG 800 864 VOUT2
FLAG 192 768 0
FLAG 1248 800 0
FLAG 1232 0 0
FLAG 384 1264 0
FLAG 240 1248 0
FLAG 1056 1200 0
DATAFLAG -80 -144 ""
SYMBOL npn -16 112 R0
SYMATTR InstName Q1
SYMATTR Value 2SC4098
SYMBOL diode 48 256 R90
WINDOW 0 0 32 VBottom 2
WINDOW 3 32 32 VTop 2
SYMATTR InstName D1
SYMATTR Value 1N914
SYMBOL diode 624 272 R90
WINDOW 0 0 32 VBottom 2
WINDOW 3 32 32 VTop 2
SYMATTR InstName D2
SYMATTR Value 1N914
SYMBOL voltage -224 144 R0
WINDOW 123 0 0 Left 0
WINDOW 39 0 0 Left 0
SYMATTR InstName V1
SYMATTR Value PULSE(-1 1 0 10n 10n 50u 100u)
SYMBOL npn 240 112 R0
SYMATTR InstName Q2
SYMATTR Value 2SC5585
SYMBOL npn 560 112 R0
SYMATTR InstName Q3
SYMATTR Value 2SC5585
SYMBOL res 32 -112 R0
SYMATTR InstName R1
SYMATTR Value 25k
SYMBOL res 288 -112 R0
SYMATTR InstName R2
SYMATTR Value 5k
SYMBOL res 608 -96 R0
SYMATTR InstName R3
SYMATTR Value 5k
SYMBOL res 368 672 R0
SYMATTR InstName R4
SYMATTR Value 10k
SYMBOL res 368 992 R0
SYMATTR InstName R5
SYMATTR Value 1k
SYMBOL npn 592 752 R0
SYMATTR InstName Q5
SYMATTR Value 2SC5585
SYMBOL res 640 624 R0
SYMATTR InstName R6
SYMATTR Value 100
SYMBOL diode 656 928 R90
WINDOW 0 0 32 VBottom 2
WINDOW 3 32 32 VTop 2
SYMATTR InstName D3
SYMATTR Value 1N914
SYMBOL voltage -608 -160 R0
WINDOW 123 0 0 Left 0
WINDOW 39 0 0 Left 0
SYMATTR InstName V2
SYMATTR Value 3
SYMBOL voltage 192 640 R0
WINDOW 123 0 0 Left 0
WINDOW 39 0 0 Left 0
SYMATTR InstName V3
SYMATTR Value 3
SYMBOL npn 848 816 R0
SYMATTR InstName Q6
SYMATTR Value 2N5089
SYMBOL res 1232 672 R0
SYMATTR InstName R7
SYMATTR Value 100
SYMBOL npn 992 864 R0
SYMATTR InstName Q7
SYMATTR Value 2N2222
SYMBOL npn 848 160 R0
SYMATTR InstName Q8
SYMATTR Value 2N2222
SYMBOL npn 992 208 R0
SYMATTR InstName Q9
SYMATTR Value 2N2222
SYMBOL voltage 1232 -160 R0
WINDOW 123 0 0 Left 0
WINDOW 39 0 0 Left 0
SYMATTR InstName V4
SYMATTR Value 3
SYMBOL voltage 384 1120 R0
WINDOW 123 0 0 Left 0
WINDOW 39 0 0 Left 0
SYMATTR InstName V5
SYMATTR Value -3
SYMBOL diode 256 1024 R180
WINDOW 0 24 64 Left 2
WINDOW 3 24 0 Left 2
SYMATTR InstName D4
SYMATTR Value 1N914
SYMBOL diode 256 1136 R180
WINDOW 0 24 64 Left 2
WINDOW 3 24 0 Left 2
SYMATTR InstName D5
SYMATTR Value 1N914
SYMBOL npn 320 832 R0
SYMATTR InstName Q4
SYMATTR Value 2SC4098
SYMBOL diode 1216 944 R180
WINDOW 0 24 64 Left 2
WINDOW 3 24 0 Left 2
SYMATTR InstName D6
SYMATTR Value 1N914
SYMBOL diode 1216 288 R180
WINDOW 0 24 64 Left 2
WINDOW 3 24 0 Left 2
SYMATTR InstName D7
SYMATTR Value 1N914
SYMBOL ind 1232 560 R0
SYMATTR InstName L1
SYMATTR Value 100µ
SYMBOL cap 1392 640 R0
SYMATTR InstName C1
SYMATTR Value 10µ
TEXT -640 1016 Left 2 !.tran 0 1m 0 10n
