Version 4
SHEET 1 880 680
WIRE 96 -16 -208 -16
WIRE 336 -16 96 -16
WIRE 336 16 336 -16
WIRE -208 32 -208 -16
WIRE 96 96 96 -16
WIRE 336 128 336 96
WIRE 448 128 336 128
WIRE 336 144 336 128
WIRE 48 160 -80 160
WIRE 272 192 96 192
WIRE -80 272 -80 240
WIRE -208 320 -208 112
WIRE 336 320 336 240
FLAG 336 320 0
FLAG -80 272 0
FLAG -208 320 0
FLAG 448 128 VOUT
IOPIN 448 128 Out
SYMBOL pjf 48 96 R0
SYMATTR InstName J1
SYMATTR Value 2N5460
SYMBOL npn 272 144 R0
SYMATTR InstName Q1
SYMATTR Value 2N5769
SYMBOL res 320 0 R0
SYMATTR InstName R1
SYMATTR Value 2k
SYMBOL voltage -80 144 R0
WINDOW 123 24 124 Left 2
WINDOW 39 0 0 Left 0
SYMATTR InstName V1
SYMATTR Value SINE(97m 1m 100k)
SYMATTR Value2 AC 1
SYMBOL voltage -208 16 R0
WINDOW 123 0 0 Left 0
WINDOW 39 0 0 Left 0
SYMATTR InstName V2
SYMATTR Value 6
TEXT -242 344 Left 2 !.ac dec 10 1 10G
