Version 4
SHEET 1 1444 840
WIRE 320 16 112 16
WIRE 672 16 320 16
WIRE 1216 16 672 16
WIRE 320 80 320 16
WIRE 672 80 672 16
WIRE 112 96 112 16
WIRE 1216 160 1216 16
WIRE 320 224 320 160
WIRE 672 224 672 160
WIRE 112 240 112 176
WIRE 1216 288 1216 240
WIRE 320 336 320 288
WIRE 1152 336 320 336
WIRE 1120 416 816 416
WIRE 1216 416 1216 384
WIRE 1216 416 1120 416
WIRE 1216 464 1216 416
WIRE 320 512 320 336
WIRE 320 512 240 512
WIRE 672 512 672 288
WIRE 752 512 672 512
WIRE 176 560 80 560
WIRE 320 560 320 512
WIRE 672 560 672 512
WIRE 816 560 816 416
WIRE 1216 576 1216 528
WIRE 80 592 80 560
WIRE 912 592 912 560
WIRE 256 608 240 608
WIRE 752 608 736 608
WIRE 496 656 320 656
WIRE 672 656 496 656
WIRE 1216 656 1216 640
WIRE 80 720 80 672
WIRE 912 720 912 672
WIRE 1216 768 1216 736
WIRE 496 800 496 736
FLAG 112 240 0
FLAG 496 800 0
FLAG 80 720 0
FLAG 912 720 0
FLAG 1216 768 0
FLAG 1120 416 VOUT
SYMBOL voltage 112 80 R0
WINDOW 123 0 0 Left 0
WINDOW 39 0 0 Left 0
SYMATTR InstName V1
SYMATTR Value 10
SYMBOL res 304 64 R0
SYMATTR InstName R1
SYMATTR Value 120
SYMBOL diode 304 224 R0
SYMATTR InstName D1
SYMATTR Value 1N914
SYMBOL npn 176 512 R0
SYMATTR InstName Q1
SYMATTR Value 2SC3838K
SYMBOL res 656 64 R0
SYMATTR InstName R2
SYMATTR Value 120
SYMBOL diode 656 224 R0
SYMATTR InstName D2
SYMATTR Value 1N914
SYMBOL npn 256 560 R0
SYMATTR InstName Q2
SYMATTR Value 2SC3838K
SYMBOL npn 736 560 M0
SYMATTR InstName Q3
SYMATTR Value 2SC3838K
SYMBOL npn 816 512 M0
SYMATTR InstName Q4
SYMATTR Value 2SC3838K
SYMBOL res 480 640 R0
SYMATTR InstName R3
SYMATTR Value 600
SYMBOL voltage 80 576 R0
WINDOW 123 24 124 Left 2
WINDOW 39 0 0 Left 0
SYMATTR InstName V2
SYMATTR Value SINE(5 2.5 100k)
SYMATTR Value2 AC 0.5
SYMBOL voltage 912 576 R0
WINDOW 123 24 124 Left 2
WINDOW 39 0 0 Left 0
SYMATTR InstName V3
SYMATTR Value SINE(5 5)
SYMATTR Value2 AC -0.5
SYMBOL pnp 1152 384 M180
SYMATTR InstName Q5
SYMATTR Value 2N5771
SYMBOL res 1200 144 R0
SYMATTR InstName R4
SYMATTR Value 150
SYMBOL diode 1200 464 R0
SYMATTR InstName D3
SYMATTR Value 1N914
SYMBOL diode 1200 576 R0
SYMATTR InstName D4
SYMATTR Value 1N914
SYMBOL res 1200 640 R0
SYMATTR InstName R5
SYMATTR Value 4k
TEXT 46 824 Left 2 !.tran 0 200u 0 10n
